61

C       -3.7183240000     -2.1579390000     -2.6568340000                 
C       -3.9271570000     -1.3609290000     -1.5854700000                 
C       -2.8243810000     -0.7500820000     -0.8891610000                 
N       -1.5067580000     -0.9797760000     -1.3842040000                 
C       -1.3448080000     -1.7794150000     -2.4176920000                 
C       -2.3869520000     -2.3948080000     -3.0941880000                 
C       -2.8785630000      0.0391250000      0.2450600000                 
C       -4.0754470000      0.4142020000      0.9533510000                 
C       -4.0690890000      1.1939230000      2.0548100000                 
C       -2.8327360000      1.6602170000      2.5295980000                 
C       -1.6360090000      1.3528030000      1.9181390000                 
C       -1.6006020000      0.5540290000      0.7896010000                 
C        3.3189900000     -0.8076310000     -3.0779950000                 
C        2.2487550000     -0.2518240000     -2.4168570000                 
N        1.6578820000     -0.8373790000     -1.3759880000                 
C        2.1101630000     -2.0241340000     -0.9164120000                 
C        3.1956180000     -2.6356430000     -1.5475960000                 
C        3.7962340000     -2.0265910000     -2.6266360000                 
C        1.3790830000     -2.5362470000      0.2435310000                 
C        0.3351340000     -1.7212840000      0.7512400000                 
C       -0.3666020000     -2.1672250000      1.8686220000                 
C       -0.0481690000     -3.3718040000      2.4499810000                 
C        0.9559820000     -4.1918800000      1.9784260000                 
C        1.6462990000     -3.7463340000      0.8791970000                 
Ir       0.0019460000     -0.0047920000     -0.2690430000                 
C       -0.9071250000      2.0682160000     -2.4126630000                 
C       -0.9733440000      3.2789820000     -3.0618800000                 
C       -0.1773330000      4.3096690000     -2.5913390000                 
C        0.6448620000      4.0961510000     -1.5072680000                 
C        0.6726900000      2.8445170000     -0.8881760000                 
N       -0.1122680000      1.8533710000     -1.3648520000                 
C        1.4872770000      2.4670420000      0.2698800000                 
C        2.3909240000      3.3109730000      0.9113480000                 
C        3.1365510000      2.9329560000      1.9999630000                 
C        2.9559610000      1.6427780000      2.4537450000                 
C        2.0824460000      0.7578610000      1.8660410000                 
C        1.3275520000      1.1464060000      0.7620880000                 
H       -4.5519540000     -2.6145570000     -3.1714140000                 
H       -4.9272010000     -1.1739630000     -1.2344710000                 
H       -0.3231460000     -1.9423660000     -2.7369610000                 
H       -2.1713980000     -3.0387970000     -3.9334570000                 
F       -5.2696500000     -0.0282900000      0.5078660000                 
H       -4.9903850000      1.4497720000      2.5576380000                 
F       -2.8467830000      2.4352230000      3.6236970000                 
H       -0.7249670000      1.7446640000      2.3471380000                 
H        3.7650380000     -0.2940020000     -3.9169670000                 
H        1.8377290000      0.7007610000     -2.7205230000                 
H        3.5624470000     -3.5791030000     -1.1847060000                 
H        4.6386310000     -2.5013140000     -3.1120830000                 
H       -1.1613230000     -1.5787750000      2.3033630000                 
F       -0.7392910000     -3.7805870000      3.5247880000                 
H        1.1933510000     -5.1352810000      2.4454530000                 
F        2.6251980000     -4.5560500000      0.4228560000                 
H       -1.5091590000      1.2272970000     -2.7275900000                 
H       -1.6350550000      3.4068800000     -3.9059480000                 
H       -0.1985830000      5.2815590000     -3.0664660000                 
H        1.2628790000      4.8919730000     -1.1317180000                 
F        2.5786400000      4.5741490000      0.4726450000                 
H        3.8262320000      3.6158880000      2.4716200000                 
F        3.6723030000      1.2458430000      3.5166900000                 
H        1.9939870000     -0.2342060000      2.2850880000                 
